data/ENWL/enwl_phase_to_neutral_embedded/network_10/Feeder_6/Loads.txt
! Imported from Loads.txt, with modified neutral terminal
! ----------------------------------------------------------
New Load.LOAD1 Phases=1 Bus1=64.1 kV=0.23 kW=1.968  PF=0.95
New Load.LOAD2 Phases=1 Bus1=286.2 kV=0.23 kW=0.306  PF=0.95
New Load.LOAD3 Phases=1 Bus1=367.3 kV=0.23 kW=2.94  PF=0.95
New Load.LOAD4 Phases=1 Bus1=442.1 kV=0.23 kW=0.324  PF=0.95
New Load.LOAD5 Phases=1 Bus1=459.2 kV=0.23 kW=1.332  PF=0.95
! ----------------------------------------------------------